Circuit: * C:\Users\DOC\AppData\Local\LTspice\learning\Draft1.asc

Direct Newton iteration for .op point succeeded.

Date: Wed Jul 12 02:39:31 2023
Total elapsed time: 0.432 seconds.

tnom = 27
temp = 27
method = modified trap
totiter = 291076
traniter = 291072
tranpoints = 89006
accept = 60150
rejected = 28856
matrix size = 7
fillins = 0
solver = Normal
Avg thread counts: 1.0/1.1/1.1/1.0
Matrix Compiler1: off  [0.4]/0.5/1.0
Matrix Compiler2: off  [0.4]/1.1/0.5

