Circuit: * C:\Users\DOC\AppData\Local\LTspice\learning\Draft2.asc

Warning: Multiple definitions of model "2scr375p" Type: BJT
Warning: Multiple definitions of model "bc857b" Type: BJT
Warning: Multiple definitions of model "bc847c" Type: BJT
Warning: Multiple definitions of model "bc847b" Type: BJT
WARNING: Node OUT is floating.

WARNING: Less than two connections to node out.  This node is used by c2.
Direct Newton iteration for .op point succeeded.

Date: Wed Jul 12 06:44:22 2023
Total elapsed time: 0.310 seconds.

tnom = 27
temp = 27
method = modified trap
totiter = 195933
traniter = 195925
tranpoints = 80004
accept = 48075
rejected = 31929
matrix size = 8
fillins = 0
solver = Normal
Avg thread counts: 1.0/1.1/1.1/1.0
Matrix Compiler1:      22 opcodes  0.3/[0.1]/0.2
Matrix Compiler2: 582 bytes object code size  0.2/0.2/[0.1]

