Circuit: * C:\Users\DOC\AppData\Local\LTspice\learning\Draft1.asc

WARNING: Less than two connections to node n001.  This node is used by r1.
Direct Newton iteration for .op point succeeded.

Date: Fri Jul 14 18:04:31 2023
Total elapsed time: 0.098 seconds.

tnom = 27
temp = 27
method = modified trap
totiter = 2376
traniter = 2365
tranpoints = 1104
accept = 1065
rejected = 39
matrix size = 11
fillins = 0
solver = Normal
Avg thread counts: 3.5/6.3/6.3/3.5
Matrix Compiler1: 486 bytes object code size  0.3/0.3/[0.2]
Matrix Compiler2: 739 bytes object code size  0.2/0.3/[0.2]

