Circuit: * C:\Users\DOC\AppData\Local\LTspice\learning\ESP32_theta.asc

Direct Newton iteration failed to find .op point.  (Use ".option noopiter" to skip.)
Starting Gmin stepping
Gmin = 10
Gmin = 1.07374
Gmin = 0.115292
Gmin = 0.0123794
Gmin = 0.00132923
Gmin = 0.000142725
vernier = 0.5
vernier = 0.25
vernier = 0.125
Gmin = 8.33655e-05
vernier = 0.0625
vernier = 0.03125
vernier = 0.015625
Gmin = 8.43111e-05
vernier = 0.0208333
vernier = 0.0277778
Gmin = 7.94925e-05
vernier = 0.037037
vernier = 0.0493827
Gmin = 7.23837e-05
vernier = 0.0658435
Gmin = 6.24858e-05
vernier = 0.0877914
vernier = 0.117055
Gmin = 4.88768e-05
vernier = 0.156073
vernier = 0.208098
Gmin = 3.31328e-05
vernier = 0.277464
Gmin = 1.80883e-05
vernier = 0.369952
vernier = 0.493269
Gmin = 6.6817e-06
vernier = 0.657691
vernier = 0.876922
Gmin = 1.42905e-06
vernier = 1
vernier = 0.5
Gmin = 4.03732e-07
vernier = 0.666667
vernier = 0.888888
vernier = 0.444444
vernier = 0.222222
Gmin = 1.42318e-07
vernier = 0.111111
vernier = 0.0555555
vernier = 0.0277778
vernier = 0.0138889
vernier = 0.00694444
vernier = 0.00347222
vernier = 0.00173611
vernier = 0.000868055
vernier = 0.000434028
Gmin = 0
Gmin = 0
Gmin stepping failed

Starting source stepping with srcstepmethod=0
Source Step = 3.0303%
Source Step = 33.3333%
Source Step = 63.6364%
Source Step = 88.6364%
vernier = 0.0625
Source Step = 87.8995%
Starting source stepping with srcstepmethod=1
Source Step = 3.0303%
Source Step = 33.3333%
Source Step = 63.6364%
Source Step = 88.6364%
vernier = 0.0625
Source stepping failed

Pseudo Transient succeeded in finding the operating point at 1.22139 s.

Date: Thu Jul 13 02:23:33 2023
Total elapsed time: 1.062 seconds.

tnom = 27
temp = 27
method = modified trap
totiter = 29638
traniter = 20608
tranpoints = 5181
accept = 3955
rejected = 1257
matrix size = 138
fillins = 282
solver = Normal
Avg thread counts: 1.3/2.1/1.4/1.3
Matrix Compiler1: 26.37 KB object code size  3.9/3.5/[1.5]
Matrix Compiler2: off  [1.5]/1.8/1.6

