Circuit: * C:\Users\DOC\AppData\Local\LTspice\learning\hello_world.asc

Warning: Multiple definitions of model "2scr375p" Type: BJT
Warning: Multiple definitions of model "bc857b" Type: BJT
Warning: Multiple definitions of model "bc847c" Type: BJT
Warning: Multiple definitions of model "bc847b" Type: BJT
v3: Missing value, assumed 0V @ DC
Direct Newton iteration for .op point succeeded.
.step x=1e-07
.step x=2e-07
.step x=3e-07
.step x=4e-07
.step x=5e-07

Date: Wed Jul 12 02:41:38 2023
Total elapsed time: 0.450 seconds.

tnom = 27
temp = 27
method = modified trap
totiter = 2133
traniter = 2126
tranpoints = 1053
accept = 1053
rejected = 0
matrix size = 27
fillins = 1
solver = Normal
Avg thread counts: 3.8/6.6/6.6/3.8
Matrix Compiler1:      72 opcodes  0.7/[0.4]/0.5
Matrix Compiler2: 1.91 KB object code size  0.4/0.5/[0.4]

